LAMMPS (29 Sep 2021 - Update 2)
units lj
atom_style bond
boundary p p p

read_data init.data
Reading data file ...
  orthogonal box = (0.0000000 0.0000000 0.0000000) to (20.000000 20.000000 20.000000)
  reading atoms ...
  20 atoms
  scanning bonds ...
  reading bonds ...
  19 bonds
Finding 1-2 1-3 1-4 neighbors ...
     2 = max # of 1-2 neighbors
     2 = max # of 1-3 neighbors
     4 = max # of 1-4 neighbors
     6 = max # of special neighbors

velocity all create 1 42

pair_style none

bond_style harmonic
bond_coeff 1 5 1.

thermo 1000

fix 1 all nve
fix 2 all langevin 1. 1. 1. 42

timestep 0.001

dump 1 all custom 100 dump.lammpstrj id mol type xu yu zu
dump_modify 1 format line "%d %d %d %.8g %.8g %.8g"

run 10000
Step Temp E_pair E_mol TotEng Press
0            1            0            0        1.425     0.002375
Averages over the last 6 of 11 rows, steps 5000 to 10000:
Temp E_pair E_mol TotEng Press
1.09542 0 0.592629 2.1536 -0.000305189
Loop time of 0.0788774 on 1 procs for 10000 steps with 20 atoms
